135busbars/Lines_135.dss
New Line.L1	phases=3	bus1=B1.1.2.3	bus2=B2.1.2.3	length=0.9	linecode = LineCode_1
New Line.L2	phases=3	bus1=B2.1.2.3	bus2=B3.1.2.3	length=0.05	linecode = LineCode_1
New Line.L3	phases=3	bus1=B2.1.2.3	bus2=B4.1.2.3	length=0.1	linecode = LineCode_1
New Line.L4	phases=3	bus1=B4.1.2.3	bus2=B5.1.2.3	length=0.04	linecode = LineCode_1
New Line.L5	phases=3	bus1=B5.1.2.3	bus2=B6.1.2.3	length=0.02	linecode = LineCode_1
New Line.L6	phases=3	bus1=B6.1.2.3	bus2=B7.1.2.3	length=0.02	linecode = LineCode_1
New Line.L7	phases=3	bus1=B7.1.2.3	bus2=B8.1.2.3	length=0.02	linecode = LineCode_1
New Line.L8	phases=3	bus1=B8.1.2.3	bus2=B9.1.2.3	length=0.01	linecode = LineCode_1
New Line.L9	phases=3	bus1=B9.1.2.3	bus2=B10.1.2.3	length=0.05	linecode = LineCode_3
New Line.L10	phases=3	bus1=B10.1.2.3	bus2=B11.1.2.3	length=0.1	linecode = LineCode_3
New Line.L11	phases=3	bus1=B11.1.2.3	bus2=B12.1.2.3	length=0.06	linecode = LineCode_3
New Line.L12	phases=3	bus1=B12.1.2.3	bus2=B13.1.2.3	length=0.03	linecode = LineCode_3
New Line.L13	phases=3	bus1=B13.1.2.3	bus2=B14.1.2.3	length=0.16	linecode = LineCode_3
New Line.L14	phases=3	bus1=B11.1.2.3	bus2=B15.1.2.3	length=0.03	linecode = LineCode_3
New Line.L15	phases=3	bus1=B15.1.2.3	bus2=B16.1.2.3	length=0.01	linecode = LineCode_3
New Line.L16	phases=3	bus1=B16.1.2.3	bus2=B17.1.2.3	length=0.02	linecode = LineCode_3
New Line.L17	phases=3	bus1=B17.1.2.3	bus2=B18.1.2.3	length=0.04	linecode = LineCode_1
New Line.L18	phases=3	bus1=B18.1.2.3	bus2=B19.1.2.3	length=0.04	linecode = LineCode_1
New Line.L19	phases=3	bus1=B19.1.2.3	bus2=B20.1.2.3	length=0.05	linecode = LineCode_1
New Line.L20	phases=3	bus1=B18.1.2.3	bus2=B21.1.2.3	length=0.15	linecode = LineCode_1
New Line.L21	phases=3	bus1=B10.1.2.3	bus2=B22.1.2.3	length=0.03	linecode = LineCode_1
New Line.L22	phases=3	bus1=B22.1.2.3	bus2=B23.1.2.3	length=0.07	linecode = LineCode_1
New Line.L23	phases=3	bus1=B23.1.2.3	bus2=B24.1.2.3	length=0.05	linecode = LineCode_1
New Line.L24	phases=3	bus1=B24.1.2.3	bus2=B25.1.2.3	length=0.02	linecode = LineCode_1
New Line.L25	phases=3	bus1=B25.1.2.3	bus2=B26.1.2.3	length=0.03	linecode = LineCode_1
New Line.L26	phases=3	bus1=B26.1.2.3	bus2=B27.1.2.3	length=0.12	linecode = LineCode_3
New Line.L27	phases=3	bus1=B27.1.2.3	bus2=B28.1.2.3	length=0.02	linecode = LineCode_3
New Line.L28	phases=3	bus1=B28.1.2.3	bus2=B29.1.2.3	length=0.02	linecode = LineCode_3
New Line.L29	phases=3	bus1=B29.1.2.3	bus2=B30.1.2.3	length=0.005	linecode = LineCode_3
New Line.L30	phases=3	bus1=B28.1.2.3	bus2=B31.1.2.3	length=0.025	linecode = LineCode_3
New Line.L31	phases=3	bus1=B26.1.2.3	bus2=B32.1.2.3	length=0.06	linecode = LineCode_1
New Line.L32	phases=3	bus1=B32.1.2.3	bus2=B33.1.2.3	length=0.04	linecode = LineCode_1
New Line.L33	phases=3	bus1=B33.1.2.3	bus2=B34.1.2.3	length=0.02	linecode = LineCode_1
New Line.L34	phases=3	bus1=B23.1.2.3	bus2=B35.1.2.3	length=0.01	linecode = LineCode_1
New Line.L35	phases=3	bus1=B35.1.2.3	bus2=B36.1.2.3	length=0.07	linecode = LineCode_1
New Line.L36	phases=3	bus1=B36.1.2.3	bus2=B37.1.2.3	length=0.01	linecode = LineCode_2
New Line.L37	phases=3	bus1=B37.1.2.3	bus2=B38.1.2.3	length=0.01	linecode = LineCode_2
New Line.L38	phases=3	bus1=B38.1.2.3	bus2=B39.1.2.3	length=0.07	linecode = LineCode_1
New Line.L39	phases=3	bus1=B38.1.2.3	bus2=B40.1.2.3	length=0.1	linecode = LineCode_1
New Line.L40	phases=3	bus1=B40.1.2.3	bus2=B41.1.2.3	length=0.06	linecode = LineCode_1
New Line.L41	phases=3	bus1=B40.1.2.3	bus2=B42.1.2.3	length=0.05	linecode = LineCode_1
New Line.L42	phases=3	bus1=B42.1.2.3	bus2=B43.1.2.3	length=0.01	linecode = LineCode_1
New Line.L43	phases=3	bus1=B40.1.2.3	bus2=B44.1.2.3	length=0.03	linecode = LineCode_1
New Line.L44	phases=3	bus1=B44.1.2.3	bus2=B45.1.2.3	length=0.04	linecode = LineCode_1
New Line.L45	phases=3	bus1=B38.1.2.3	bus2=B46.1.2.3	length=0.06	linecode = LineCode_1
New Line.L46	phases=3	bus1=B46.1.2.3	bus2=B47.1.2.3	length=0.02	linecode = LineCode_1
New Line.L47	phases=3	bus1=B47.1.2.3	bus2=B48.1.2.3	length=0.12	linecode = LineCode_2
New Line.L48	phases=3	bus1=B48.1.2.3	bus2=B49.1.2.3	length=0.05	linecode = LineCode_2
New Line.L49	phases=3	bus1=B49.1.2.3	bus2=B50.1.2.3	length=0.02	linecode = LineCode_2
New Line.L50	phases=3	bus1=B50.1.2.3	bus2=B51.1.2.3	length=0.17	linecode = LineCode_2
New Line.L51	phases=3	bus1=B48.1.2.3	bus2=B52.1.2.3	length=0.1	linecode = LineCode_2
New Line.L52	phases=3	bus1=B52.1.2.3	bus2=B53.1.2.3	length=0.06	linecode = LineCode_2
New Line.L53	phases=3	bus1=B53.1.2.3	bus2=B54.1.2.3	length=0.03	linecode = LineCode_2
New Line.L54	phases=3	bus1=B54.1.2.3	bus2=B55.1.2.3	length=0.13	linecode = LineCode_2
New Line.L55	phases=3	bus1=B52.1.2.3	bus2=B56.1.2.3	length=0.02	linecode = LineCode_2
New Line.L56	phases=3	bus1=B56.1.2.3	bus2=B57.1.2.3	length=0.08	linecode = LineCode_2
New Line.L57	phases=3	bus1=B57.1.2.3	bus2=B58.1.2.3	length=0.05	linecode = LineCode_2
New Line.L58	phases=3	bus1=B57.1.2.3	bus2=B59.1.2.3	length=0.06	linecode = LineCode_2
New Line.L59	phases=3	bus1=B59.1.2.3	bus2=B60.1.2.3	length=0.02	linecode = LineCode_2
New Line.L60	phases=3	bus1=B48.1.2.3	bus2=B61.1.2.3	length=0.04	linecode = LineCode_2
New Line.L61	phases=3	bus1=B61.1.2.3	bus2=B62.1.2.3	length=0.01	linecode = LineCode_2
New Line.L62	phases=3	bus1=B62.1.2.3	bus2=B63.1.2.3	length=0.05	linecode = LineCode_2
New Line.L63	phases=3	bus1=B63.1.2.3	bus2=B64.1.2.3	length=0.03	linecode = LineCode_1
New Line.L64	phases=3	bus1=B64.1.2.3	bus2=B65.1.2.3	length=0.02	linecode = LineCode_1
New Line.L65	phases=3	bus1=B65.1.2.3	bus2=B66.1.2.3	length=0.03	linecode = LineCode_1
New Line.L66	phases=3	bus1=B66.1.2.3	bus2=B67.1.2.3	length=0.02	linecode = LineCode_1
New Line.L67	phases=3	bus1=B67.1.2.3	bus2=B68.1.2.3	length=0.03	linecode = LineCode_1
New Line.L68	phases=3	bus1=B67.1.2.3	bus2=B69.1.2.3	length=0.02	linecode = LineCode_1
New Line.L69	phases=3	bus1=B69.1.2.3	bus2=B70.1.2.3	length=0.02	linecode = LineCode_1
New Line.L70	phases=3	bus1=B67.1.2.3	bus2=B71.1.2.3	length=0.05	linecode = LineCode_1
New Line.L71	phases=3	bus1=B71.1.2.3	bus2=B72.1.2.3	length=0.04	linecode = LineCode_1
New Line.L72	phases=3	bus1=B72.1.2.3	bus2=B73.1.2.3	length=0.04	linecode = LineCode_3
New Line.L73	phases=3	bus1=B73.1.2.3	bus2=B74.1.2.3	length=0.02	linecode = LineCode_1
New Line.L74	phases=3	bus1=B74.1.2.3	bus2=B75.1.2.3	length=0.11	linecode = LineCode_1
New Line.L75	phases=3	bus1=B63.1.2.3	bus2=B76.1.2.3	length=0.02	linecode = LineCode_1
New Line.L76	phases=3	bus1=B76.1.2.3	bus2=B77.1.2.3	length=0.03	linecode = LineCode_1
New Line.L77	phases=3	bus1=B77.1.2.3	bus2=B78.1.2.3	length=0.05	linecode = LineCode_1
New Line.L78	phases=3	bus1=B78.1.2.3	bus2=B79.1.2.3	length=0.07	linecode = LineCode_3
New Line.L79	phases=3	bus1=B79.1.2.3	bus2=B80.1.2.3	length=0.07	linecode = LineCode_1
New Line.L80	phases=3	bus1=B80.1.2.3	bus2=B81.1.2.3	length=0.03	linecode = LineCode_3
New Line.L81	phases=3	bus1=B81.1.2.3	bus2=B82.1.2.3	length=0.03	linecode = LineCode_3
New Line.L82	phases=3	bus1=B82.1.2.3	bus2=B83.1.2.3	length=0.05	linecode = LineCode_3
New Line.L83	phases=3	bus1=B82.1.2.3	bus2=B84.1.2.3	length=0.05	linecode = LineCode_3
New Line.L84	phases=3	bus1=B84.1.2.3	bus2=B85.1.2.3	length=0.03	linecode = LineCode_3
New Line.L85	phases=3	bus1=B128.1.2.3	bus2=B86.1.2.3	length=0.03	linecode = LineCode_1
New Line.L86	phases=3	bus1=B86.1.2.3	bus2=B87.1.2.3	length=0.02	linecode = LineCode_1
New Line.L87	phases=3	bus1=B78.1.2.3	bus2=B88.1.2.3	length=0.05	linecode = LineCode_1
New Line.L88	phases=3	bus1=B78.1.2.3	bus2=B89.1.2.3	length=0.13	linecode = LineCode_1
New Line.L89	phases=3	bus1=B89.1.2.3	bus2=B90.1.2.3	length=0.05	linecode = LineCode_3
New Line.L90	phases=3	bus1=B90.1.2.3	bus2=B91.1.2.3	length=0.18	linecode = LineCode_3
New Line.L91	phases=3	bus1=B91.1.2.3	bus2=B92.1.2.3	length=0.02	linecode = LineCode_1
New Line.L92	phases=3	bus1=B92.1.2.3	bus2=B93.1.2.3	length=0.03	linecode = LineCode_1
New Line.L93	phases=3	bus1=B92.1.2.3	bus2=B94.1.2.3	length=0.07	linecode = LineCode_1
New Line.L94	phases=3	bus1=B92.1.2.3	bus2=B95.1.2.3	length=0.1	linecode = LineCode_2
New Line.L95	phases=3	bus1=B95.1.2.3	bus2=B96.1.2.3	length=0.04	linecode = LineCode_2
New Line.L96	phases=3	bus1=B95.1.2.3	bus2=B97.1.2.3	length=0.05	linecode = LineCode_2
New Line.L97	phases=3	bus1=B97.1.2.3	bus2=B98.1.2.3	length=0.06	linecode = LineCode_2
New Line.L98	phases=3	bus1=B98.1.2.3	bus2=B99.1.2.3	length=0.11	linecode = LineCode_2
New Line.L99	phases=3	bus1=B98.1.2.3	bus2=B100.1.2.3	length=0.04	linecode = LineCode_1
New Line.L100	phases=3	bus1=B100.1.2.3	bus2=B101.1.2.3	length=0.11	linecode = LineCode_1
New Line.L101	phases=3	bus1=B95.1.2.3	bus2=B102.1.2.3	length=0.06	linecode = LineCode_1
New Line.L102	phases=3	bus1=B102.1.2.3	bus2=B103.1.2.3	length=0.04	linecode = LineCode_3
New Line.L103	phases=3	bus1=B103.1.2.3	bus2=B104.1.2.3	length=0.03	linecode = LineCode_3
New Line.L104	phases=3	bus1=B103.1.2.3	bus2=B105.1.2.3	length=0.15	linecode = LineCode_3
New Line.L105	phases=3	bus1=B105.1.2.3	bus2=B106.1.2.3	length=0.21	linecode = LineCode_1
New Line.L106	phases=3	bus1=B106.1.2.3	bus2=B107.1.2.3	length=0.03	linecode = LineCode_2
New Line.L107	phases=3	bus1=B107.1.2.3	bus2=B108.1.2.3	length=0.1	linecode = LineCode_2
New Line.L108	phases=3	bus1=B108.1.2.3	bus2=B109.1.2.3	length=0.1	linecode = LineCode_2
New Line.L109	phases=3	bus1=B109.1.2.3	bus2=B110.1.2.3	length=0.03	linecode = LineCode_2
New Line.L110	phases=3	bus1=B110.1.2.3	bus2=B111.1.2.3	length=0.02	linecode = LineCode_2
New Line.L111	phases=3	bus1=B107.1.2.3	bus2=B112.1.2.3	length=0.17	linecode = LineCode_1
New Line.L112	phases=3	bus1=B112.1.2.3	bus2=B113.1.2.3	length=0.11	linecode = LineCode_1
New Line.L113	phases=3	bus1=B113.1.2.3	bus2=B114.1.2.3	length=0.11	linecode = LineCode_1
New Line.L114	phases=3	bus1=B113.1.2.3	bus2=B115.1.2.3	length=0.3	linecode = LineCode_2
New Line.L115	phases=3	bus1=B115.1.2.3	bus2=B116.1.2.3	length=0.2	linecode = LineCode_2
New Line.L116	phases=3	bus1=B116.1.2.3	bus2=B117.1.2.3	length=0.2	linecode = LineCode_2
New Line.L117	phases=3	bus1=B117.1.2.3	bus2=B118.1.2.3	length=0.2	linecode = LineCode_1
New Line.L118	phases=3	bus1=B90.1.2.3	bus2=B119.1.2.3	length=0.11	linecode = LineCode_1
New Line.L119	phases=3	bus1=B119.1.2.3	bus2=B120.1.2.3	length=0.07	linecode = LineCode_1
New Line.L120	phases=3	bus1=B120.1.2.3	bus2=B121.1.2.3	length=0.07	linecode = LineCode_1
New Line.L121	phases=3	bus1=B119.1.2.3	bus2=B122.1.2.3	length=0.07	linecode = LineCode_1
New Line.L122	phases=3	bus1=B122.1.2.3	bus2=B123.1.2.3	length=0.13	linecode = LineCode_1
New Line.L123	phases=3	bus1=B123.1.2.3	bus2=B124.1.2.3	length=0.02	linecode = LineCode_1
New Line.L124	phases=3	bus1=B123.1.2.3	bus2=B125.1.2.3	length=0.02	linecode = LineCode_1
New Line.L125	phases=3	bus1=B125.1.2.3	bus2=B126.1.2.3	length=0.04	linecode = LineCode_3
New Line.L126	phases=3	bus1=B126.1.2.3	bus2=B127.1.2.3	length=0.04	linecode = LineCode_3
New Line.L127	phases=3	bus1=B85.1.2.3	bus2=B128.1.2.3	length=0.02	linecode = LineCode_3
New Line.L128	phases=3	bus1=B128.1.2.3	bus2=B129.1.2.3	length=0.06	linecode = LineCode_3
New Line.L129	phases=3	bus1=B104.1.2.3	bus2=B130.1.2.3	length=0.07	linecode = LineCode_3
New Line.L130	phases=3	bus1=B130.1.2.3	bus2=B131.1.2.3	length=0.02	linecode = LineCode_1
New Line.L131	phases=3	bus1=B130.1.2.3	bus2=B132.1.2.3	length=0.1	linecode = LineCode_1
New Line.L132	phases=3	bus1=B132.1.2.3	bus2=B133.1.2.3	length=0.04	linecode = LineCode_3
New Line.L133	phases=3	bus1=B133.1.2.3	bus2=B134.1.2.3	length=0.04	linecode = LineCode_3

//----------------------------
// Interconnection lines
//----------------------------

New Line.L134		phases=3	bus1=B14.1.2.3		bus2=B561.1.2.3		length=2.2	linecode = LineCode_1
New Line.L135		phases=3	bus1=B51.1.2.3		bus2=B277.1.2.3		length=1	linecode = LineCode_1
New Line.L136		phases=3	bus1=B75.1.2.3		bus2=B718.1.2.3		length=0.5	linecode = LineCode_1
New Line.L137		phases=3	bus1=B103.1.2.3		bus2=B877.1.2.3		length=0.9	linecode = LineCode_1
New Line.L138		phases=3	bus1=B111.1.2.3		bus2=B1218.1.2.3	length=0.5	linecode = LineCode_1
New Line.L139		phases=3	bus1=B118.1.2.3		bus2=B1118.1.2.3	length=0.5	linecode = LineCode_1
New Line.L140		phases=3	bus1=B127.1.2.3		bus2=B418.1.2.3		length=0.3	linecode = LineCode_1
New Line.L141		phases=3	bus1=B129.1.2.3		bus2=B429.1.2.3		length=0.4	linecode = LineCode_1

New Line.L1341	phases=3	bus1=B1.1.2.3		bus2=B561.1.2.3		length=0.01	linecode = LineCode_1
New Line.L1351	phases=3	bus1=B1.1.2.3		bus2=B277.1.2.3		length=0.01	linecode = LineCode_1
New Line.L1361	phases=3	bus1=B1.1.2.3		bus2=B718.1.2.3		length=0.01	linecode = LineCode_1
New Line.L1371	phases=3	bus1=B1.1.2.3		bus2=B877.1.2.3		length=0.01	linecode = LineCode_1
New Line.L1381	phases=3	bus1=B1.1.2.3		bus2=B1218.1.2.3	length=0.01	linecode = LineCode_1
New Line.L1391	phases=3	bus1=B1.1.2.3		bus2=B1118.1.2.3	length=0.01	linecode = LineCode_1
New Line.L1401	phases=3	bus1=B1.1.2.3		bus2=B418.1.2.3		length=0.01	linecode = LineCode_1
New Line.L1411	phases=3	bus1=B1.1.2.3		bus2=B429.1.2.3		length=0.01	linecode = LineCode_1

