135busbars/Loads_135.dss
New Load.C1	phases = 3	model = 1	bus1=B3.1.2.3	conn = delta	kv = 13.8	kW = 41.40	kvar = 17.64
New Load.C2	phases = 3	model = 1	bus1=B5.1.2.3	conn = delta	kv = 13.8	kW = 69.00	kvar = 29.39
New Load.C3	phases = 3	model = 1	bus1=B6.1.2.3	conn = delta	kv = 13.8	kW = 69.00	kvar = 29.39
New Load.C4	phases = 3	model = 1	bus1=B7.1.2.3	conn = delta	kv = 13.8	kW = 103.50	kvar = 44.09
New Load.C5	phases = 3	model = 1	bus1=B8.1.2.3	conn = delta	kv = 13.8	kW = 69.00	kvar = 29.39
New Load.C6	phases = 3	model = 1	bus1=B9.1.2.3	conn = delta	kv = 13.8	kW = 69.00	kvar = 29.39
New Load.C7	phases = 3	model = 1	bus1=B12.1.2.3	conn = delta	kv = 13.8	kW = 7.91	kvar = 3.37
New Load.C8	phases = 3	model = 1	bus1=B13.1.2.3	conn = delta	kv = 13.8	kW = 69.00	kvar = 29.39
New Load.C9	phases = 3	model = 1	bus1=B14.1.2.3	conn = delta	kv = 13.8	kW = 69.00	kvar = 29.39
New Load.C10	phases = 3	model = 1	bus1=B15.1.2.3	conn = delta	kv = 13.8	kW = 103.50	kvar = 44.09
New Load.C11	phases = 3	model = 1	bus1=B16.1.2.3	conn = delta	kv = 13.8	kW = 41.40	kvar = 17.64
New Load.C12	phases = 3	model = 1	bus1=B17.1.2.3	conn = delta	kv = 13.8	kW = 103.50	kvar = 44.09
New Load.C13	phases = 3	model = 1	bus1=B19.1.2.3	conn = delta	kv = 13.8	kW = 69.00	kvar = 29.39
New Load.C14	phases = 3	model = 1	bus1=B20.1.2.3	conn = delta	kv = 13.8	kW = 103.50	kvar = 44.09
New Load.C15	phases = 3	model = 1	bus1=B21.1.2.3	conn = delta	kv = 13.8	kW = 103.50	kvar = 44.09
New Load.C16	phases = 3	model = 1	bus1=B22.1.2.3	conn = delta	kv = 13.8	kW = 103.50	kvar = 44.09
New Load.C17	phases = 3	model = 1	bus1=B24.1.2.3	conn = delta	kv = 13.8	kW = 2.76	kvar = 1.18
New Load.C18	phases = 3	model = 1	bus1=B25.1.2.3	conn = delta	kv = 13.8	kW = 41.40	kvar = 17.64
New Load.C19	phases = 3	model = 1	bus1=B27.1.2.3	conn = delta	kv = 13.8	kW = 103.50	kvar = 44.09
New Load.C20	phases = 3	model = 1	bus1=B29.1.2.3	conn = delta	kv = 13.8	kW = 69.00	kvar = 29.39
New Load.C21	phases = 3	model = 1	bus1=B30.1.2.3	conn = delta	kv = 13.8	kW = 103.50	kvar = 44.09
New Load.C22	phases = 3	model = 1	bus1=B31.1.2.3	conn = delta	kv = 13.8	kW = 103.50	kvar = 44.09
New Load.C23	phases = 3	model = 1	bus1=B32.1.2.3	conn = delta	kv = 13.8	kW = 103.50	kvar = 44.09
New Load.C24	phases = 3	model = 1	bus1=B33.1.2.3	conn = delta	kv = 13.8	kW = 103.50	kvar = 44.09
New Load.C25	phases = 3	model = 1	bus1=B34.1.2.3	conn = delta	kv = 13.8	kW = 103.50	kvar = 44.09
New Load.C26	phases = 3	model = 1	bus1=B36.1.2.3	conn = delta	kv = 13.8	kW = 11.41	kvar = 4.86
New Load.C27	phases = 3	model = 1	bus1=B37.1.2.3	conn = delta	kv = 13.8	kW = 103.50	kvar = 44.09
New Load.C28	phases = 3	model = 1	bus1=B39.1.2.3	conn = delta	kv = 13.8	kW = 2.76	kvar = 1.18
New Load.C29	phases = 3	model = 1	bus1=B41.1.2.3	conn = delta	kv = 13.8	kW = 69.00	kvar = 29.39
New Load.C30	phases = 3	model = 1	bus1=B42.1.2.3	conn = delta	kv = 13.8	kW = 69.00	kvar = 29.39
New Load.C31	phases = 3	model = 1	bus1=B43.1.2.3	conn = delta	kv = 13.8	kW = 69.00	kvar = 29.39
New Load.C32	phases = 3	model = 1	bus1=B44.1.2.3	conn = delta	kv = 13.8	kW = 103.50	kvar = 44.09
New Load.C33	phases = 3	model = 1	bus1=B45.1.2.3	conn = delta	kv = 13.8	kW = 41.40	kvar = 17.64
New Load.C34	phases = 3	model = 1	bus1=B46.1.2.3	conn = delta	kv = 13.8	kW = 0.92	kvar = 0.39
New Load.C35	phases = 3	model = 1	bus1=B47.1.2.3	conn = delta	kv = 13.8	kW = 103.50	kvar = 44.09
New Load.C36	phases = 3	model = 1	bus1=B49.1.2.3	conn = delta	kv = 13.8	kW = 103.50	kvar = 44.09
New Load.C37	phases = 3	model = 1	bus1=B50.1.2.3	conn = delta	kv = 13.8	kW = 69.00	kvar = 29.39
New Load.C38	phases = 3	model = 1	bus1=B51.1.2.3	conn = delta	kv = 13.8	kW = 103.50	kvar = 44.09
New Load.C39	phases = 3	model = 1	bus1=B53.1.2.3	conn = delta	kv = 13.8	kW = 1.10	kvar = 0.47
New Load.C40	phases = 3	model = 1	bus1=B54.1.2.3	conn = delta	kv = 13.8	kW = 103.50	kvar = 44.09
New Load.C41	phases = 3	model = 1	bus1=B55.1.2.3	conn = delta	kv = 13.8	kW = 69.00	kvar = 29.39
New Load.C42	phases = 3	model = 1	bus1=B56.1.2.3	conn = delta	kv = 13.8	kW = 69.00	kvar = 29.39
New Load.C43	phases = 3	model = 1	bus1=B58.1.2.3	conn = delta	kv = 13.8	kW = 9.20	kvar = 3.92
New Load.C44	phases = 3	model = 1	bus1=B59.1.2.3	conn = delta	kv = 13.8	kW = 103.50	kvar = 44.09
New Load.C45	phases = 3	model = 1	bus1=B60.1.2.3	conn = delta	kv = 13.8	kW = 3.50	kvar = 1.49
New Load.C46	phases = 3	model = 1	bus1=B61.1.2.3	conn = delta	kv = 13.8	kW = 2.76	kvar = 1.18
New Load.C47	phases = 3	model = 1	bus1=B62.1.2.3	conn = delta	kv = 13.8	kW = 5.06	kvar = 2.16
New Load.C48	phases = 3	model = 1	bus1=B64.1.2.3	conn = delta	kv = 13.8	kW = 69.00	kvar = 29.39
New Load.C49	phases = 3	model = 1	bus1=B65.1.2.3	conn = delta	kv = 13.8	kW = 69.00	kvar = 29.39
New Load.C50	phases = 3	model = 1	bus1=B66.1.2.3	conn = delta	kv = 13.8	kW = 3.22	kvar = 1.37
New Load.C51	phases = 3	model = 1	bus1=B68.1.2.3	conn = delta	kv = 13.8	kW = 103.50	kvar = 44.09
New Load.C52	phases = 3	model = 1	bus1=B69.1.2.3	conn = delta	kv = 13.8	kW = 6.44	kvar = 2.74
New Load.C53	phases = 3	model = 1	bus1=B70.1.2.3	conn = delta	kv = 13.8	kW = 103.50	kvar = 44.09
New Load.C54	phases = 3	model = 1	bus1=B71.1.2.3	conn = delta	kv = 13.8	kW = 69.00	kvar = 29.39
New Load.C55	phases = 3	model = 1	bus1=B72.1.2.3	conn = delta	kv = 13.8	kW = 7.82	kvar = 3.33
New Load.C56	phases = 3	model = 1	bus1=B73.1.2.3	conn = delta	kv = 13.8	kW = 1.75	kvar = 0.74
New Load.C57	phases = 3	model = 1	bus1=B74.1.2.3	conn = delta	kv = 13.8	kW = 103.50	kvar = 44.09
New Load.C58	phases = 3	model = 1	bus1=B75.1.2.3	conn = delta	kv = 13.8	kW = 103.50	kvar = 44.09
New Load.C59	phases = 3	model = 1	bus1=B76.1.2.3	conn = delta	kv = 13.8	kW = 103.50	kvar = 44.09
New Load.C60	phases = 3	model = 1	bus1=B77.1.2.3	conn = delta	kv = 13.8	kW = 5.43	kvar = 2.31
New Load.C61	phases = 3	model = 1	bus1=B79.1.2.3	conn = delta	kv = 13.8	kW = 69.00	kvar = 29.39
New Load.C62	phases = 3	model = 1	bus1=B80.1.2.3	conn = delta	kv = 13.8	kW = 103.50	kvar = 44.09
New Load.C63	phases = 3	model = 1	bus1=B81.1.2.3	conn = delta	kv = 13.8	kW = 103.50	kvar = 44.09
New Load.C64	phases = 3	model = 1	bus1=B83.1.2.3	conn = delta	kv = 13.8	kW = 69.00	kvar = 29.39
New Load.C65	phases = 3	model = 1	bus1=B84.1.2.3	conn = delta	kv = 13.8	kW = 69.00	kvar = 29.39
New Load.C66	phases = 3	model = 1	bus1=B85.1.2.3	conn = delta	kv = 13.8	kW = 103.50	kvar = 44.09
New Load.C67	phases = 3	model = 1	bus1=B86.1.2.3	conn = delta	kv = 13.8	kW = 103.50	kvar = 44.09
New Load.C68	phases = 3	model = 1	bus1=B87.1.2.3	conn = delta	kv = 13.8	kW = 69.00	kvar = 29.39
New Load.C69	phases = 3	model = 1	bus1=B88.1.2.3	conn = delta	kv = 13.8	kW = 69.00	kvar = 29.39
New Load.C70	phases = 3	model = 1	bus1=B89.1.2.3	conn = delta	kv = 13.8	kW = 41.40	kvar = 17.64
New Load.C71	phases = 3	model = 1	bus1=B91.1.2.3	conn = delta	kv = 13.8	kW = 103.50	kvar = 44.09
New Load.C72	phases = 3	model = 1	bus1=B93.1.2.3	conn = delta	kv = 13.8	kW = 21.62	kvar = 9.21
New Load.C73	phases = 3	model = 1	bus1=B94.1.2.3	conn = delta	kv = 13.8	kW = 69.00	kvar = 29.39
New Load.C74	phases = 3	model = 1	bus1=B96.1.2.3	conn = delta	kv = 13.8	kW = 5.52	kvar = 2.35
New Load.C75	phases = 3	model = 1	bus1=B97.1.2.3	conn = delta	kv = 13.8	kW = 21.62	kvar = 9.21
New Load.C76	phases = 3	model = 1	bus1=B99.1.2.3	conn = delta	kv = 13.8	kW = 69.00	kvar = 29.39
New Load.C77	phases = 3	model = 1	bus1=B100.1.2.3	conn = delta	kv = 13.8	kW = 103.50	kvar = 44.09
New Load.C78	phases = 3	model = 1	bus1=B101.1.2.3	conn = delta	kv = 13.8	kW = 103.50	kvar = 44.09
New Load.C79	phases = 3	model = 1	bus1=B102.1.2.3	conn = delta	kv = 13.8	kW = 69.00	kvar = 29.39
New Load.C80	phases = 3	model = 1	bus1=B104.1.2.3	conn = delta	kv = 13.8	kW = 69.00	kvar = 29.39
New Load.C81	phases = 3	model = 1	bus1=B105.1.2.3	conn = delta	kv = 13.8	kW = 69.00	kvar = 29.39
New Load.C82	phases = 3	model = 1	bus1=B106.1.2.3	conn = delta	kv = 13.8	kW = 99.82	kvar = 42.52
New Load.C83	phases = 3	model = 1	bus1=B109.1.2.3	conn = delta	kv = 13.8	kW = 103.50	kvar = 44.09
New Load.C84	phases = 3	model = 1	bus1=B110.1.2.3	conn = delta	kv = 13.8	kW = 103.50	kvar = 44.09
New Load.C85	phases = 3	model = 1	bus1=B111.1.2.3	conn = delta	kv = 13.8	kW = 69.00	kvar = 29.39
New Load.C86	phases = 3	model = 1	bus1=B112.1.2.3	conn = delta	kv = 13.8	kW = 27.60	kvar = 11.76
New Load.C87	phases = 3	model = 1	bus1=B115.1.2.3	conn = delta	kv = 13.8	kW = 27.60	kvar = 11.76
New Load.C88	phases = 3	model = 1	bus1=B116.1.2.3	conn = delta	kv = 13.8	kW = 27.60	kvar = 11.76
New Load.C89	phases = 3	model = 1	bus1=B117.1.2.3	conn = delta	kv = 13.8	kW = 27.60	kvar = 11.76
New Load.C90	phases = 3	model = 1	bus1=B118.1.2.3	conn = delta	kv = 13.8	kW = 27.60	kvar = 11.76
New Load.C91	phases = 3	model = 1	bus1=B120.1.2.3	conn = delta	kv = 13.8	kW = 50.60	kvar = 21.56
New Load.C92	phases = 3	model = 1	bus1=B121.1.2.3	conn = delta	kv = 13.8	kW = 27.60	kvar = 11.76
New Load.C93	phases = 3	model = 1	bus1=B124.1.2.3	conn = delta	kv = 13.8	kW = 14.26	kvar = 6.07
New Load.C94	phases = 3	model = 1	bus1=B125.1.2.3	conn = delta	kv = 13.8	kW = 41.40	kvar = 17.64
New Load.C95	phases = 3	model = 1	bus1=B126.1.2.3	conn = delta	kv = 13.8	kW = 14.26	kvar = 6.07
New Load.C96	phases = 3	model = 1	bus1=B127.1.2.3	conn = delta	kv = 13.8	kW = 14.26	kvar = 6.07
New Load.C97	phases = 3	model = 1	bus1=B129.1.2.3	conn = delta	kv = 13.8	kW = 41.40	kvar = 17.64
New Load.C98	phases = 3	model = 1	bus1=B131.1.2.3	conn = delta	kv = 13.8	kW = 103.50	kvar = 44.09
New Load.C99	phases = 3	model = 1	bus1=B133.1.2.3	conn = delta	kv = 13.8	kW = 103.50	kvar = 44.09
New Load.C100	phases = 3	model = 1	bus1=B134.1.2.3	conn = delta	kv = 13.8	kW = 103.50	kvar = 44.09
